
data_
_chemical_name_mineral Maghemite
_cell_length_a 8.37
_cell_length_b 8.37
_cell_length_c 8.37
_cell_angle_alpha 90
_cell_angle_beta 90
_cell_angle_gamma 90
_cell_volume 586.3763
_symmetry_space_group_name_H-M Fd3m:2
loop_
	_symmetry_equiv_pos_as_xyz
	 'x, y, z '
	 '-x, -z, -y '
	 '-x+1/4, -z-1/4, y+1/2 '
	 '-x+1/4, y+1/2, -z-1/4 '
	 '-x+1/2, z-1/4, y+1/4 '
	 '-x+1/2, y+1/4, z-1/4 '
	 '-x-1/4, -y+1/4, z+1/2 '
	 '-x-1/4, z+1/2, -y+1/4 '
	 '-y, -x, -z '
	 '-y, -z, -x '
	 '-y+1/4, -x-1/4, z+1/2 '
	 '-y+1/4, z+1/2, -x-1/4 '
	 '-y+1/2, z+1/4, x-1/4 '
	 '-y+1/2, x-1/4, z+1/4 '
	 '-y-1/4, -z+1/4, x+1/2 '
	 '-y-1/4, x+1/2, -z+1/4 '
	 '-z, -x, -y '
	 '-z, -y, -x '
	 '-z+1/4, -y-1/4, x+1/2 '
	 '-z+1/4, x+1/2, -y-1/4 '
	 '-z+1/2, y-1/4, x+1/4 '
	 '-z+1/2, x+1/4, y-1/4 '
	 '-z-1/4, -x+1/4, y+1/2 '
	 '-z-1/4, y+1/2, -x+1/4 '
	 'z, y, x '
	 'z, x, y '
	 'z+1/4, -y+1/2, x-1/4 '
	 'z+1/4, x-1/4, -y+1/2 '
	 'z+1/2, -x-1/4, -y+1/4 '
	 'z+1/2, -y+1/4, -x-1/4 '
	 'z-1/4, -x+1/2, y+1/4 '
	 'z-1/4, y+1/4, -x+1/2 '
	 'y, z, x '
	 'y, x, z '
	 'y+1/4, -x+1/2, z-1/4 '
	 'y+1/4, z-1/4, -x+1/2 '
	 'y+1/2, -x+1/4, -z-1/4 '
	 'y+1/2, -z-1/4, -x+1/4 '
	 'y-1/4, -z+1/2, x+1/4 '
	 'y-1/4, x+1/4, -z+1/2 '
	 'x, z, y '
	 '-x, -y, -z '
	 'x+1/4, -z+1/2, y-1/4 '
	 'x+1/4, y-1/4, -z+1/2 '
	 'x+1/2, -y-1/4, -z+1/4 '
	 'x+1/2, -z+1/4, -y-1/4 '
	 'x-1/4, -y+1/2, z+1/4 '
	 'x-1/4, z+1/4, -y+1/2 '
	 'x+1/2, y+1/2, z '
	 '-x+1/2, -z+1/2, -y '
	 '-x-1/4, -z+1/4, y+1/2 '
	 '-x-1/4, y, -z-1/4 '
	 '-x, z+1/4, y+1/4 '
	 '-x, y-1/4, z-1/4 '
	 '-x+1/4, -y-1/4, z+1/2 '
	 '-x+1/4, z, -y+1/4 '
	 '-y+1/2, -x+1/2, -z '
	 '-y+1/2, -z+1/2, -x '
	 '-y-1/4, -x+1/4, z+1/2 '
	 '-y-1/4, z, -x-1/4 '
	 '-y, z-1/4, x-1/4 '
	 '-y, x+1/4, z+1/4 '
	 '-y+1/4, -z-1/4, x+1/2 '
	 '-y+1/4, x, -z+1/4 '
	 '-z+1/2, -x+1/2, -y '
	 '-z+1/2, -y+1/2, -x '
	 '-z-1/4, -y+1/4, x+1/2 '
	 '-z-1/4, x, -y-1/4 '
	 '-z, y+1/4, x+1/4 '
	 '-z, x-1/4, y-1/4 '
	 '-z+1/4, -x-1/4, y+1/2 '
	 '-z+1/4, y, -x+1/4 '
	 'z+1/2, y+1/2, x '
	 'z+1/2, x+1/2, y '
	 'z-1/4, -y, x-1/4 '
	 'z-1/4, x+1/4, -y+1/2 '
	 'z, -x+1/4, -y+1/4 '
	 'z, -y-1/4, -x-1/4 '
	 'z+1/4, -x, y+1/4 '
	 'z+1/4, y-1/4, -x+1/2 '
	 'y+1/2, z+1/2, x '
	 'y+1/2, x+1/2, z '
	 'y-1/4, -x, z-1/4 '
	 'y-1/4, z+1/4, -x+1/2 '
	 'y, -x-1/4, -z-1/4 '
	 'y, -z+1/4, -x+1/4 '
	 'y+1/4, -z, x+1/4 '
	 'y+1/4, x-1/4, -z+1/2 '
	 'x+1/2, z+1/2, y '
	 '-x+1/2, -y+1/2, -z '
	 'x-1/4, -z, y-1/4 '
	 'x-1/4, y+1/4, -z+1/2 '
	 'x, -y+1/4, -z+1/4 '
	 'x, -z-1/4, -y-1/4 '
	 'x+1/4, -y, z+1/4 '
	 'x+1/4, z-1/4, -y+1/2 '
	 'x+1/2, y, z+1/2 '
	 '-x+1/2, -z, -y+1/2 '
	 '-x-1/4, -z-1/4, y '
	 '-x-1/4, y+1/2, -z+1/4 '
	 '-x, z-1/4, y-1/4 '
	 '-x, y+1/4, z+1/4 '
	 '-x+1/4, -y+1/4, z '
	 '-x+1/4, z+1/2, -y-1/4 '
	 '-y+1/2, -x, -z+1/2 '
	 '-y+1/2, -z, -x+1/2 '
	 '-y-1/4, -x-1/4, z '
	 '-y-1/4, z+1/2, -x+1/4 '
	 '-y, z+1/4, x+1/4 '
	 '-y, x-1/4, z-1/4 '
	 '-y+1/4, -z+1/4, x '
	 '-y+1/4, x+1/2, -z-1/4 '
	 '-z+1/2, -x, -y+1/2 '
	 '-z+1/2, -y, -x+1/2 '
	 '-z-1/4, -y-1/4, x '
	 '-z-1/4, x+1/2, -y+1/4 '
	 '-z, y-1/4, x-1/4 '
	 '-z, x+1/4, y+1/4 '
	 '-z+1/4, -x+1/4, y '
	 '-z+1/4, y+1/2, -x-1/4 '
	 'z+1/2, y, x+1/2 '
	 'z+1/2, x, y+1/2 '
	 'z-1/4, -y+1/2, x+1/4 '
	 'z-1/4, x-1/4, -y '
	 'z, -x-1/4, -y-1/4 '
	 'z, -y+1/4, -x+1/4 '
	 'z+1/4, -x+1/2, y-1/4 '
	 'z+1/4, y+1/4, -x '
	 'y+1/2, z, x+1/2 '
	 'y+1/2, x, z+1/2 '
	 'y-1/4, -x+1/2, z+1/4 '
	 'y-1/4, z-1/4, -x '
	 'y, -x+1/4, -z+1/4 '
	 'y, -z-1/4, -x-1/4 '
	 'y+1/4, -z+1/2, x-1/4 '
	 'y+1/4, x+1/4, -z '
	 'x+1/2, z, y+1/2 '
	 '-x+1/2, -y, -z+1/2 '
	 'x-1/4, -z+1/2, y+1/4 '
	 'x-1/4, y-1/4, -z '
	 'x, -y-1/4, -z-1/4 '
	 'x, -z+1/4, -y+1/4 '
	 'x+1/4, -y+1/2, z-1/4 '
	 'x+1/4, z+1/4, -y '
	 'x, y+1/2, z+1/2 '
	 '-x, -z+1/2, -y+1/2 '
	 '-x+1/4, -z+1/4, y '
	 '-x+1/4, y, -z+1/4 '
	 '-x+1/2, z+1/4, y-1/4 '
	 '-x+1/2, y-1/4, z+1/4 '
	 '-x-1/4, -y-1/4, z '
	 '-x-1/4, z, -y-1/4 '
	 '-y, -x+1/2, -z+1/2 '
	 '-y, -z+1/2, -x+1/2 '
	 '-y+1/4, -x+1/4, z '
	 '-y+1/4, z, -x+1/4 '
	 '-y+1/2, z-1/4, x+1/4 '
	 '-y+1/2, x+1/4, z-1/4 '
	 '-y-1/4, -z-1/4, x '
	 '-y-1/4, x, -z-1/4 '
	 '-z, -x+1/2, -y+1/2 '
	 '-z, -y+1/2, -x+1/2 '
	 '-z+1/4, -y+1/4, x '
	 '-z+1/4, x, -y+1/4 '
	 '-z+1/2, y+1/4, x-1/4 '
	 '-z+1/2, x-1/4, y+1/4 '
	 '-z-1/4, -x-1/4, y '
	 '-z-1/4, y, -x-1/4 '
	 'z, y+1/2, x+1/2 '
	 'z, x+1/2, y+1/2 '
	 'z+1/4, -y, x+1/4 '
	 'z+1/4, x+1/4, -y '
	 'z+1/2, -x+1/4, -y-1/4 '
	 'z+1/2, -y-1/4, -x+1/4 '
	 'z-1/4, -x, y-1/4 '
	 'z-1/4, y-1/4, -x '
	 'y, z+1/2, x+1/2 '
	 'y, x+1/2, z+1/2 '
	 'y+1/4, -x, z+1/4 '
	 'y+1/4, z+1/4, -x '
	 'y+1/2, -x-1/4, -z+1/4 '
	 'y+1/2, -z+1/4, -x-1/4 '
	 'y-1/4, -z, x-1/4 '
	 'y-1/4, x-1/4, -z '
	 'x, z+1/2, y+1/2 '
	 '-x, -y+1/2, -z+1/2 '
	 'x+1/4, -z, y+1/4 '
	 'x+1/4, y+1/4, -z '
	 'x+1/2, -y+1/4, -z-1/4 '
	 'x+1/2, -z-1/4, -y+1/4 '
	 'x-1/4, -y, z-1/4 '
	 'x-1/4, z-1/4, -y '
loop_
_atom_site_label
_atom_site_type_symbol
_atom_site_symmetry_multiplicity
_atom_site_fract_x
_atom_site_fract_y
_atom_site_fract_z
_atom_site_occupancy
_atom_site_B_iso_or_equiv
Fe1 Fe  16 0.5 0.5 0.5 0.8333 0.5
Fe2 Fe   8 0.125 0.125 0.125 1 0.5
O O  32 0.25 0.25 0.25 1 0.5